* NGSPICE file created from Integrated_bitcell_with_dummy_cells_flat.ext - technology: sky130B

.subckt Integrated_bitcell_with_dummy_cells_flat PRE_SRAM RWL[0] WWL[0] RWLB[0] RWL[1]
+ WWL[1] RWLB[1] RWL[2] WWL[2] RWLB[2] RWL[3] WWL[3] RWLB[3] RWL[4] WWL[4] RWLB[4]
+ RWL[5] WWL[5] RWLB[5] RWL[6] WWL[6] RWLB[6] RWL[7] WWL[7] RWLB[7] RWL[8] WWL[8]
+ RWLB[8] RWL[9] WWL[9] RWLB[9] RWL[10] WWL[10] RWLB[10] RWL[11] WWL[11] RWLB[11]
+ RWL[12] WWL[12] RWLB[12] RWL[13] WWL[13] RWLB[13] RWL[14] WWL[14] RWLB[14] RWL[15]
+ WWL[15] RWLB[15] PRE_VLSA WE PRE_CLSA VCLP SAEN ADC0_OUT[0] ADC0_OUT[1] ADC0_OUT[2]
+ ADC0_OUT[3] ADC1_OUT[0] ADC1_OUT[1] ADC1_OUT[2] ADC1_OUT[3] ADC2_OUT[0] ADC2_OUT[1]
+ ADC2_OUT[2] ADC2_OUT[3] ADC3_OUT[0] ADC3_OUT[1] ADC3_OUT[2] ADC3_OUT[3] ADC4_OUT[0]
+ ADC4_OUT[1] ADC4_OUT[2] ADC4_OUT[3] ADC5_OUT[0] ADC5_OUT[1] ADC5_OUT[2] ADC5_OUT[3]
+ ADC6_OUT[0] ADC6_OUT[1] ADC6_OUT[2] ADC6_OUT[3] ADC7_OUT[0] ADC7_OUT[1] ADC7_OUT[2]
+ ADC7_OUT[3] ADC8_OUT[0] ADC8_OUT[1] ADC8_OUT[2] ADC8_OUT[3] ADC9_OUT[0] ADC9_OUT[1]
+ ADC9_OUT[2] ADC9_OUT[3] ADC10_OUT[0] ADC10_OUT[1] ADC10_OUT[2] ADC10_OUT[3] ADC11_OUT[0]
+ ADC11_OUT[1] ADC11_OUT[2] ADC11_OUT[3] ADC12_OUT[0] ADC12_OUT[1] ADC12_OUT[2] ADC12_OUT[3]
+ ADC13_OUT[0] ADC13_OUT[1] ADC13_OUT[2] ADC13_OUT[3] ADC14_OUT[0] ADC14_OUT[1] ADC14_OUT[2]
+ ADC14_OUT[3] ADC15_OUT[0] ADC15_OUT[1] ADC15_OUT[2] ADC15_OUT[3] Din[0] Din[1] Din[2]
+ Din[3] Din[4] Din[5] Din[6] Din[7] Din[8] Din[9] Din[10] Din[11] Din[12] Din[13]
+ Din[14] Din[15] WWLD[0] WWLD[1] WWLD[2] WWLD[3] WWLD[4] WWLD[5] WWLD[6] WWLD[7]
+ SA_OUT[0] SA_OUT[1] SA_OUT[2] SA_OUT[3] SA_OUT[4] SA_OUT[5] SA_OUT[6] SA_OUT[7]
+ SA_OUT[8] SA_OUT[9] SA_OUT[10] SA_OUT[11] SA_OUT[12] SA_OUT[13] SA_OUT[14] SA_OUT[15]
+ EN PRE_A Iref0 Iref1 Iref2 Iref3 VSS VDD
X0 a_2015_2180.t0 a_2002_2165.t3 VSS.t1274 VSS.t86 sky130_fd_pr__nfet_01v8 ad=0p pd=0u as=0p ps=0u w=420000u l=150000u
X1 SA_OUT[5].t0 PRE_VLSA.t0 VDD.t1167 VDD.t1166 sky130_fd_pr__pfet_01v8 ad=0p pd=0u as=0p ps=0u w=2e+06u l=150000u
X2 a_8340_n953.t11 VSS.t764 a_8340_n812.t0 VSS.t51 sky130_fd_pr__nfet_01v8 ad=0p pd=0u as=0p ps=0u w=420000u l=150000u
X3 VSS.t397 a_3247_3666.t3 a_3617_3666.t1 VSS.t258 sky130_fd_pr__nfet_01v8 ad=0p pd=0u as=0p ps=0u w=420000u l=150000u
X4 VSS.t389 a_4397_1698.t3 a_4767_1698.t1 VSS.t157 sky130_fd_pr__nfet_01v8 ad=0p pd=0u as=0p ps=0u w=420000u l=150000u
X5 a_1440_452.t0 a_1427_437.t3 VSS.t393 VSS.t36 sky130_fd_pr__nfet_01v8 ad=0p pd=0u as=0p ps=0u w=420000u l=150000u
X6 a_372_1216.t1 a_277_1201.t3 VSS.t253 VSS.t21 sky130_fd_pr__nfet_01v8 ad=0p pd=0u as=0p ps=0u w=640000u l=150000u
X7 VSS.t403 a_7827_n2234.t2 a_7950_n2132.t0 VSS.t402 sky130_fd_pr__nfet_01v8 ad=0p pd=0u as=0p ps=0u w=420000u l=150000u
X8 VSS.t391 a_3247_n512.t3 a_3152_n527.t1 VSS.t69 sky130_fd_pr__nfet_01v8 ad=0p pd=0u as=0p ps=0u w=640000u l=150000u
X9 a_2097_4148.t1 a_2002_4133.t3 VDD.t311 VDD.t310 sky130_fd_pr__pfet_01v8 ad=0p pd=0u as=0p ps=0u w=420000u l=150000u
X10 a_8422_3184.t1 a_8327_3169.t3 VDD.t333 VDD.t332 sky130_fd_pr__pfet_01v8 ad=0p pd=0u as=0p ps=0u w=420000u l=150000u
X11 a_3247_2180.t1 a_3152_2165.t3 VDD.t51 VDD.t50 sky130_fd_pr__pfet_01v8 ad=0p pd=0u as=0p ps=0u w=420000u l=150000u
X12 VDD.t1165 PRE_VLSA.t1 a_2035_n1371.t2 VDD.t1164 sky130_fd_pr__pfet_01v8 ad=0p pd=0u as=0p ps=0u w=2e+06u l=150000u
X13 a_865_n953.t6 VSS.t763 a_865_n812.t0 VSS.t42 sky130_fd_pr__nfet_01v8 ad=0p pd=0u as=0p ps=0u w=420000u l=150000u
X14 a_3740_n953.t9 VSS.t762 a_3740_4686.t0 VSS.t37 sky130_fd_pr__nfet_01v8 ad=0p pd=0u as=0p ps=0u w=420000u l=150000u
X15 a_8792_3425.t1 RWLB[1].t0 a_8340_n953.t2 VSS.t233 sky130_fd_pr__nfet_01v8 ad=0p pd=0u as=0p ps=0u w=420000u l=150000u
X16 VSS.t228 a_4972_1698.t3 a_4877_1683.t0 VSS.t54 sky130_fd_pr__nfet_01v8 ad=0p pd=0u as=0p ps=0u w=640000u l=150000u
X17 a_8422_n30.t0 a_8327_n45.t3 VSS.t244 VSS.t26 sky130_fd_pr__nfet_01v8 ad=0p pd=0u as=0p ps=0u w=640000u l=150000u
X18 a_8221_n7216.t1 ADC10_OUT[2].t3 VDD.t23 VDD.t22 sky130_fd_pr__pfet_01v8 ad=0p pd=0u as=0p ps=0u w=4e+06u l=150000u
X19 VSS.t158 a_4397_n812.t3 a_4767_n812.t1 VSS.t157 sky130_fd_pr__nfet_01v8 ad=0p pd=0u as=0p ps=0u w=420000u l=150000u
X20 a_2577_3410.t0 WWL[1].t0 a_2845_4887.t3 VSS.t28 sky130_fd_pr__nfet_01v8 ad=0p pd=0u as=0p ps=0u w=420000u l=150000u
X21 a_3822_693.t1 a_3727_678.t3 VDD.t47 VDD.t46 sky130_fd_pr__pfet_01v8 ad=0p pd=0u as=0p ps=0u w=420000u l=150000u
X22 VSS.t263 SAEN.t0 a_n3792_n8026.t1 VSS.t262 sky130_fd_pr__nfet_01v8 ad=0p pd=0u as=0p ps=0u w=550000u l=150000u
X23 a_n52_n8583.t0 PRE_CLSA.t0 VDD.t87 VDD.t86 sky130_fd_pr__pfet_01v8 ad=0p pd=0u as=0p ps=0u w=4e+06u l=150000u
X24 VSS.t108 a_4972_n812.t3 a_4877_n827.t0 VSS.t54 sky130_fd_pr__nfet_01v8 ad=0p pd=0u as=0p ps=0u w=640000u l=150000u
X25 a_3042_4445.t0 VSS.t761 a_2590_n953.t4 VSS.t238 sky130_fd_pr__nfet_01v8 ad=0p pd=0u as=0p ps=0u w=420000u l=150000u
X26 a_5547_211.t1 a_5452_196.t3 VDD.t39 VDD.t38 sky130_fd_pr__pfet_01v8 ad=0p pd=0u as=0p ps=0u w=420000u l=150000u
X27 VDD.t65 a_2672_n30.t3 a_2577_n45.t1 VDD.t64 sky130_fd_pr__pfet_01v8 ad=0p pd=0u as=0p ps=0u w=420000u l=150000u
X28 VSS.t104 a_6697_n271.t3 a_6602_n286.t0 VSS.t20 sky130_fd_pr__nfet_01v8 ad=0p pd=0u as=0p ps=0u w=640000u l=150000u
X29 a_4315_n953.t5 VSS.t760 a_4315_4445.t0 VSS.t5 sky130_fd_pr__nfet_01v8 ad=0p pd=0u as=0p ps=0u w=420000u l=150000u
X30 SA_OUT[10].t2 PRE_VLSA.t2 VDD.t1163 VDD.t1162 sky130_fd_pr__pfet_01v8 ad=0p pd=0u as=0p ps=0u w=2e+06u l=150000u
X31 a_7190_n953.t7 VSS.t759 a_7190_n512.t0 VSS.t53 sky130_fd_pr__nfet_01v8 ad=0p pd=0u as=0p ps=0u w=420000u l=150000u
X32 a_4302_1201.t0 WWL[10].t0 a_4570_4887.t6 VSS.t19 sky130_fd_pr__nfet_01v8 ad=0p pd=0u as=0p ps=0u w=420000u l=150000u
X33 a_6615_975.t1 a_6602_960.t3 VSS.t112 VSS.t52 sky130_fd_pr__nfet_01v8 ad=0p pd=0u as=0p ps=0u w=420000u l=150000u
X34 VSS.t3 a_n3827_n4378.t4 a_n3827_n7825.t1 VSS.t2 sky130_fd_pr__nfet_01v8 ad=0p pd=0u as=0p ps=0u w=2e+06u l=500000u
X35 a_9613_n4470.t0 VCLP.t0 a_9475_n4470.t1 VSS.t162 sky130_fd_pr__nfet_01v8 ad=0p pd=0u as=0p ps=0u w=8e+06u l=150000u
X36 a_2084_n8026.t1 VCLP.t1 a_2049_n7825.t0 VSS.t163 sky130_fd_pr__nfet_01v8 ad=0p pd=0u as=0p ps=0u w=8e+06u l=150000u
X37 VSS.t100 a_4393_n2422.t4 a_4413_n7825.t1 VSS.t99 sky130_fd_pr__nfet_01v8 ad=0p pd=0u as=0p ps=0u w=2e+06u l=500000u
X38 VSS.t90 a_6697_3425.t3 a_6602_3410.t1 VSS.t20 sky130_fd_pr__nfet_01v8 ad=0p pd=0u as=0p ps=0u w=640000u l=150000u
X39 a_8340_n953.t1 RWL[10].t0 a_8340_1216.t1 VSS.t51 sky130_fd_pr__nfet_01v8 ad=0p pd=0u as=0p ps=0u w=420000u l=150000u
X40 VSS.t84 a_947_452.t3 a_1317_452.t1 VSS.t62 sky130_fd_pr__nfet_01v8 ad=0p pd=0u as=0p ps=0u w=420000u l=150000u
X41 a_5465_2662.t0 a_5452_2647.t3 VSS.t79 VSS.t33 sky130_fd_pr__nfet_01v8 ad=0p pd=0u as=0p ps=0u w=420000u l=150000u
X42 VDD.t89 PRE_CLSA.t1 ADC13_OUT[2].t2 VDD.t88 sky130_fd_pr__pfet_01v8 ad=0p pd=0u as=0p ps=0u w=4e+06u l=150000u
X43 a_7752_3892.t0 WWLD[3].t0 a_8020_4887.t5 VSS.t74 sky130_fd_pr__nfet_01v8 ad=0p pd=0u as=0p ps=0u w=420000u l=150000u
X44 a_290_n953.t26 RWL[0].t0 a_290_3666.t0 VSS.t38 sky130_fd_pr__nfet_01v8 ad=0p pd=0u as=0p ps=0u w=420000u l=150000u
X45 a_6697_2180.t1 a_6602_2165.t3 VDD.t21 VDD.t20 sky130_fd_pr__pfet_01v8 ad=0p pd=0u as=0p ps=0u w=420000u l=150000u
X46 a_865_n953.t2 RWL[10].t1 a_865_1216.t1 VSS.t42 sky130_fd_pr__nfet_01v8 ad=0p pd=0u as=0p ps=0u w=420000u l=150000u
X47 VSS.t61 a_947_4445.t3 a_852_4430.t0 VSS.t16 sky130_fd_pr__nfet_01v8 ad=0p pd=0u as=0p ps=0u w=640000u l=150000u
X48 VSS.t40 a_3822_3666.t3 a_4192_3666.t0 VSS.t39 sky130_fd_pr__nfet_01v8 ad=0p pd=0u as=0p ps=0u w=420000u l=150000u
X49 VSS.t2416 a_4397_1216.t3 a_4767_1216.t0 VSS.t157 sky130_fd_pr__nfet_01v8 ad=0p pd=0u as=0p ps=0u w=420000u l=150000u
X50 a_4877_1924.t0 WWL[7].t0 a_5145_4887.t5 VSS.t54 sky130_fd_pr__nfet_01v8 ad=0p pd=0u as=0p ps=0u w=420000u l=150000u
X51 a_1440_n512.t1 a_1427_n527.t3 VSS.t41 VSS.t36 sky130_fd_pr__nfet_01v8 ad=0p pd=0u as=0p ps=0u w=420000u l=150000u
X52 a_13864_n5850.t2 ADC15_OUT[1].t3 VDD.t19 VDD.t18 sky130_fd_pr__pfet_01v8 ad=0p pd=0u as=0p ps=0u w=4e+06u l=150000u
X53 SA_OUT[7].t0 PRE_VLSA.t3 VDD.t1161 VDD.t1160 sky130_fd_pr__pfet_01v8 ad=0p pd=0u as=0p ps=0u w=2e+06u l=150000u
X54 VSS.t2363 a_3822_n512.t3 a_3727_n527.t1 VSS.t12 sky130_fd_pr__nfet_01v8 ad=0p pd=0u as=0p ps=0u w=640000u l=150000u
X55 a_10797_n7203.t1 a_5743_n6391# a_10659_n7203.t2 VSS.t221 sky130_fd_pr__nfet_01v8 ad=0p pd=0u as=0p ps=0u w=8e+06u l=150000u
X56 VSS.t2402 a_8977_n2234.t2 a_9100_n2132.t0 VSS.t2401 sky130_fd_pr__nfet_01v8 ad=0p pd=0u as=0p ps=0u w=420000u l=150000u
X57 VSS.t55 a_4972_1216.t3 a_4877_1201.t1 VSS.t54 sky130_fd_pr__nfet_01v8 ad=0p pd=0u as=0p ps=0u w=640000u l=150000u
X58 VDD.t1159 PRE_VLSA.t4 a_3185_n1371.t0 VDD.t1158 sky130_fd_pr__pfet_01v8 ad=0p pd=0u as=0p ps=0u w=2e+06u l=150000u
X59 VSS.t2357 a_7847_3907.t3 a_8217_3907.t1 VSS.t254 sky130_fd_pr__nfet_01v8 ad=0p pd=0u as=0p ps=0u w=420000u l=150000u
X60 VDD.t7 a_3822_975.t3 a_3727_960.t1 VDD.t6 sky130_fd_pr__pfet_01v8 ad=0p pd=0u as=0p ps=0u w=420000u l=150000u
X61 a_3247_2180.t0 a_3152_2165.t4 VSS.t109 VSS.t75 sky130_fd_pr__nfet_01v8 ad=0p pd=0u as=0p ps=0u w=640000u l=150000u
X62 VDD.t2185 a_4972_n1053.t3 a_4877_n1068.t1 VDD.t2184 sky130_fd_pr__pfet_01v8 ad=0p pd=0u as=0p ps=0u w=420000u l=150000u
X63 a_2015_n953.t23 RWL[2].t0 a_2015_3184.t0 VSS.t86 sky130_fd_pr__nfet_01v8 ad=0p pd=0u as=0p ps=0u w=420000u l=150000u
X64 a_2590_n30.t1 a_2577_n45.t3 VSS.t110 VSS.t31 sky130_fd_pr__nfet_01v8 ad=0p pd=0u as=0p ps=0u w=420000u l=150000u
X65 a_4890_2421.t0 a_4877_2406.t3 VSS.t2173 VSS.t32 sky130_fd_pr__nfet_01v8 ad=0p pd=0u as=0p ps=0u w=420000u l=150000u
X66 a_7272_2421.t2 a_7177_2406.t3 VDD.t2176 VDD.t2175 sky130_fd_pr__pfet_01v8 ad=0p pd=0u as=0p ps=0u w=420000u l=150000u
X67 a_6203_n2086.t0 WE.t0 a_6133_n953.t7 VSS.t2403 sky130_fd_pr__nfet_01v8 ad=0p pd=0u as=0p ps=0u w=1e+06u l=150000u
X68 VSS.t2193 a_8997_n1053.t3 a_9367_n1053.t1 VSS.t256 sky130_fd_pr__nfet_01v8 ad=0p pd=0u as=0p ps=0u w=420000u l=150000u
X69 a_3258_n953.t4 WWLD[3].t1 a_3247_3907.t0 VSS.t75 sky130_fd_pr__nfet_01v8 ad=0p pd=0u as=0p ps=0u w=420000u l=150000u
X70 a_7177_3651.t0 WWL[0].t0 a_7445_4887.t14 VSS.t71 sky130_fd_pr__nfet_01v8 ad=0p pd=0u as=0p ps=0u w=420000u l=150000u
X71 a_4890_n271.t1 a_4877_n286.t3 VSS.t2353 VSS.t32 sky130_fd_pr__nfet_01v8 ad=0p pd=0u as=0p ps=0u w=420000u l=150000u
X72 a_7272_n271.t1 a_7177_n286.t3 VDD.t2160 VDD.t2159 sky130_fd_pr__pfet_01v8 ad=0p pd=0u as=0p ps=0u w=420000u l=150000u
X73 VDD.t2154 a_2672_n512.t3 a_2577_n527.t2 VDD.t2153 sky130_fd_pr__pfet_01v8 ad=0p pd=0u as=0p ps=0u w=420000u l=150000u
X74 VSS.t2188 a_8422_975.t3 a_8327_960.t0 VSS.t68 sky130_fd_pr__nfet_01v8 ad=0p pd=0u as=0p ps=0u w=640000u l=150000u
X75 a_3247_n1053.t1 a_3152_n1068.t3 VDD.t1926 VDD.t1925 sky130_fd_pr__pfet_01v8 ad=0p pd=0u as=0p ps=0u w=420000u l=150000u
X76 a_2672_n1053.t0 a_2577_n1068.t3 VSS.t2335 VSS.t72 sky130_fd_pr__nfet_01v8 ad=0p pd=0u as=0p ps=0u w=640000u l=150000u
X77 VDD.t329 a_3247_3666.t4 a_3152_3651.t2 VDD.t328 sky130_fd_pr__pfet_01v8 ad=0p pd=0u as=0p ps=0u w=420000u l=150000u
X78 a_8915_2662.t0 a_8902_2647.t3 VSS.t2343 VSS.t34 sky130_fd_pr__nfet_01v8 ad=0p pd=0u as=0p ps=0u w=420000u l=150000u
X79 VDD.t321 a_4397_1698.t4 a_4302_1683.t2 VDD.t320 sky130_fd_pr__pfet_01v8 ad=0p pd=0u as=0p ps=0u w=420000u l=150000u
X80 SA_OUT[12].t0 PRE_VLSA.t5 VDD.t1157 VDD.t1156 sky130_fd_pr__pfet_01v8 ad=0p pd=0u as=0p ps=0u w=2e+06u l=150000u
X81 a_372_4445.t0 a_277_4430.t3 VSS.t2171 VSS.t21 sky130_fd_pr__nfet_01v8 ad=0p pd=0u as=0p ps=0u w=640000u l=150000u
X82 a_6040_2180.t0 a_6027_2165.t3 VSS.t2176 VSS.t4 sky130_fd_pr__nfet_01v8 ad=0p pd=0u as=0p ps=0u w=420000u l=150000u
X83 VSS.t2168 a_8422_1698.t3 a_8792_1698.t1 VSS.t233 sky130_fd_pr__nfet_01v8 ad=0p pd=0u as=0p ps=0u w=420000u l=150000u
X84 a_7177_678.t0 WWL[12].t0 a_7445_4887.t16 VSS.t71 sky130_fd_pr__nfet_01v8 ad=0p pd=0u as=0p ps=0u w=420000u l=150000u
X85 a_3822_n812.t0 a_3727_n827.t3 VSS.t2161 VSS.t29 sky130_fd_pr__nfet_01v8 ad=0p pd=0u as=0p ps=0u w=640000u l=150000u
X86 VSS.t2333 a_7272_3666.t3 a_7642_3666.t0 VSS.t151 sky130_fd_pr__nfet_01v8 ad=0p pd=0u as=0p ps=0u w=420000u l=150000u
X87 a_8327_1924.t0 WWL[7].t1 a_8595_4887.t7 VSS.t68 sky130_fd_pr__nfet_01v8 ad=0p pd=0u as=0p ps=0u w=420000u l=150000u
X88 VDD.t55 a_4397_n812.t4 a_4302_n827.t1 VDD.t54 sky130_fd_pr__pfet_01v8 ad=0p pd=0u as=0p ps=0u w=420000u l=150000u
X89 a_7752_3410.t0 WWL[1].t1 a_8020_4887.t1 VSS.t74 sky130_fd_pr__nfet_01v8 ad=0p pd=0u as=0p ps=0u w=420000u l=150000u
X90 a_1440_n953.t18 RWL[3].t0 a_1440_2943.t0 VSS.t36 sky130_fd_pr__nfet_01v8 ad=0p pd=0u as=0p ps=0u w=420000u l=150000u
X91 a_8902_1442.t0 WWL[9].t0 a_9170_4887.t11 VSS.t10 sky130_fd_pr__nfet_01v8 ad=0p pd=0u as=0p ps=0u w=420000u l=150000u
X92 a_958_n953.t9 WWL[14].t0 a_947_211.t2 VSS.t27 sky130_fd_pr__nfet_01v8 ad=0p pd=0u as=0p ps=0u w=420000u l=150000u
X93 VSS.t2250 a_7272_n512.t3 a_7177_n527.t1 VSS.t71 sky130_fd_pr__nfet_01v8 ad=0p pd=0u as=0p ps=0u w=640000u l=150000u
X94 a_1317_4148.t0 VSS.t758 a_865_n953.t19 VSS.t62 sky130_fd_pr__nfet_01v8 ad=0p pd=0u as=0p ps=0u w=420000u l=150000u
X95 a_2672_2943.t2 a_2577_2928.t3 VDD.t1972 VDD.t1971 sky130_fd_pr__pfet_01v8 ad=0p pd=0u as=0p ps=0u w=420000u l=150000u
X96 a_2467_2180.t0 RWLB[6].t0 a_2015_n953.t40 VSS.t259 sky130_fd_pr__nfet_01v8 ad=0p pd=0u as=0p ps=0u w=420000u l=150000u
X97 a_2683_n953.t17 WWL[0].t1 a_2672_3666.t0 VSS.t72 sky130_fd_pr__nfet_01v8 ad=0p pd=0u as=0p ps=0u w=420000u l=150000u
X98 VSS.t2249 a_7847_n271.t3 a_8217_n271.t1 VSS.t254 sky130_fd_pr__nfet_01v8 ad=0p pd=0u as=0p ps=0u w=420000u l=150000u
X99 VDD.t1978 a_7039_n8583.t3 ADC9_OUT[3].t2 VDD.t1977 sky130_fd_pr__pfet_01v8 ad=0p pd=0u as=0p ps=0u w=4e+06u l=150000u
X100 VSS.t265 SAEN.t1 a_3266_n3770.t0 VSS.t264 sky130_fd_pr__nfet_01v8 ad=0p pd=0u as=0p ps=0u w=550000u l=150000u
X101 a_9078_n2086.t0 WE.t1 a_9008_n953.t6 VSS.t2404 sky130_fd_pr__nfet_01v8 ad=0p pd=0u as=0p ps=0u w=1e+06u l=150000u
X102 VSS.t2215 a_8422_n812.t3 a_8792_n812.t1 VSS.t233 sky130_fd_pr__nfet_01v8 ad=0p pd=0u as=0p ps=0u w=420000u l=150000u
X103 VDD.t1960 a_4972_1457.t3 a_4877_1442.t2 VDD.t1959 sky130_fd_pr__pfet_01v8 ad=0p pd=0u as=0p ps=0u w=420000u l=150000u
X104 a_3822_n30.t1 a_3727_n45.t3 VSS.t2218 VSS.t29 sky130_fd_pr__nfet_01v8 ad=0p pd=0u as=0p ps=0u w=640000u l=150000u
X105 a_n2207_n5338.t1 Iref1.t0 a_n2148_n5293.t1 VSS.t2219 sky130_fd_pr__nfet_01v8 ad=0p pd=0u as=0p ps=0u w=2e+06u l=500000u
X106 VSS.t2206 a_372_3666.t3 a_277_3651.t0 VSS.t13 sky130_fd_pr__nfet_01v8 ad=0p pd=0u as=0p ps=0u w=640000u l=150000u
X107 VSS.t245 a_8422_n30.t3 a_8327_n45.t1 VSS.t68 sky130_fd_pr__nfet_01v8 ad=0p pd=0u as=0p ps=0u w=640000u l=150000u
X108 a_1522_n1053.t1 a_1427_n1068.t3 VDD.t2130 VDD.t2129 sky130_fd_pr__pfet_01v8 ad=0p pd=0u as=0p ps=0u w=420000u l=150000u
X109 a_13171_n7203.t1 a_5743_n6391# a_13033_n7203.t1 VSS.t222 sky130_fd_pr__nfet_01v8 ad=0p pd=0u as=0p ps=0u w=8e+06u l=150000u
X110 a_6697_2662.t0 a_6602_2647.t3 VSS.t2201 VSS.t7 sky130_fd_pr__nfet_01v8 ad=0p pd=0u as=0p ps=0u w=640000u l=150000u
X111 VSS.t2302 a_8997_1457.t3 a_9367_1457.t0 VSS.t256 sky130_fd_pr__nfet_01v8 ad=0p pd=0u as=0p ps=0u w=420000u l=150000u
X112 a_3258_n953.t17 WWLD[4].t0 a_3247_n271.t0 VSS.t75 sky130_fd_pr__nfet_01v8 ad=0p pd=0u as=0p ps=0u w=420000u l=150000u
X113 a_8997_n812.t1 a_8902_n827.t3 VDD.t2124 VDD.t2123 sky130_fd_pr__pfet_01v8 ad=0p pd=0u as=0p ps=0u w=420000u l=150000u
X114 a_4302_4430.t0 WWLD[1].t0 a_4570_4887.t15 VSS.t19 sky130_fd_pr__nfet_01v8 ad=0p pd=0u as=0p ps=0u w=420000u l=150000u
X115 VSS.t2204 a_7847_3425.t3 a_8217_3425.t0 VSS.t254 sky130_fd_pr__nfet_01v8 ad=0p pd=0u as=0p ps=0u w=420000u l=150000u
X116 a_6708_n953.t4 WWLD[3].t2 a_6697_3907.t2 VSS.t7 sky130_fd_pr__nfet_01v8 ad=0p pd=0u as=0p ps=0u w=420000u l=150000u
X117 a_6492_975.t0 RWLB[11].t0 a_6040_n953.t22 VSS.t260 sky130_fd_pr__nfet_01v8 ad=0p pd=0u as=0p ps=0u w=420000u l=150000u
X118 a_8340_n953.t21 VSS.t757 a_8340_4445.t0 VSS.t51 sky130_fd_pr__nfet_01v8 ad=0p pd=0u as=0p ps=0u w=420000u l=150000u
X119 a_4408_n953.t1 WWL[11].t0 a_4397_975.t0 VSS.t25 sky130_fd_pr__nfet_01v8 ad=0p pd=0u as=0p ps=0u w=420000u l=150000u
X120 a_545_4887.t8 WE.t2 a_593_n2086.t1 VSS.t2405 sky130_fd_pr__nfet_01v8 ad=0p pd=0u as=0p ps=0u w=1e+06u l=150000u
X121 a_2672_n512.t1 a_2577_n527.t3 VSS.t2190 VSS.t72 sky130_fd_pr__nfet_01v8 ad=0p pd=0u as=0p ps=0u w=640000u l=150000u
X122 a_865_n953.t20 VSS.t756 a_865_4445.t0 VSS.t42 sky130_fd_pr__nfet_01v8 ad=0p pd=0u as=0p ps=0u w=420000u l=150000u
X123 a_3258_n953.t0 WWL[1].t2 a_3247_3425.t0 VSS.t75 sky130_fd_pr__nfet_01v8 ad=0p pd=0u as=0p ps=0u w=420000u l=150000u
X124 VSS.t2435 a_n1495_n4378.t4 a_n1495_n5092.t1 VSS.t2433 sky130_fd_pr__nfet_01v8 ad=0p pd=0u as=0p ps=0u w=2e+06u l=500000u
X125 a_7858_n953.t14 WWLD[7].t0 a_7847_n1053.t2 VSS.t11 sky130_fd_pr__nfet_01v8 ad=0p pd=0u as=0p ps=0u w=420000u l=150000u
X126 a_7765_452.t0 a_7752_437.t3 VSS.t2258 VSS.t35 sky130_fd_pr__nfet_01v8 ad=0p pd=0u as=0p ps=0u w=420000u l=150000u
X127 a_2519_n8071.t1 Iref3.t0 a_2578_n8026.t1 VSS.t1980 sky130_fd_pr__nfet_01v8 ad=0p pd=0u as=0p ps=0u w=2e+06u l=500000u
X128 a_3493_n8583.t0 PRE_CLSA.t2 VDD.t91 VDD.t90 sky130_fd_pr__pfet_01v8 ad=0p pd=0u as=0p ps=0u w=4e+06u l=150000u
X129 a_7353_n2086.t0 WE.t3 a_7283_n953.t7 VSS.t2406 sky130_fd_pr__nfet_01v8 ad=0p pd=0u as=0p ps=0u w=1e+06u l=150000u
X130 VSS.t2454 a_2049_n4378.t0 a_2049_n4378.t1 VSS.t2453 sky130_fd_pr__nfet_01v8 ad=0p pd=0u as=0p ps=0u w=2e+06u l=500000u
X131 VSS.t2428 a_4397_4445.t3 a_4767_4445.t0 VSS.t157 sky130_fd_pr__nfet_01v8 ad=0p pd=0u as=0p ps=0u w=420000u l=150000u
X132 VDD.t2189 a_4397_1216.t4 a_4302_1201.t1 VDD.t2188 sky130_fd_pr__pfet_01v8 ad=0p pd=0u as=0p ps=0u w=420000u l=150000u
X133 a_3822_3907.t2 a_3727_3892.t3 VDD.t2211 VDD.t2210 sky130_fd_pr__pfet_01v8 ad=0p pd=0u as=0p ps=0u w=420000u l=150000u
X134 a_947_452.t1 a_852_437.t3 VDD.t2209 VDD.t2208 sky130_fd_pr__pfet_01v8 ad=0p pd=0u as=0p ps=0u w=420000u l=150000u
X135 a_4397_n1053.t1 a_4302_n1068.t3 VDD.t2219 VDD.t2218 sky130_fd_pr__pfet_01v8 ad=0p pd=0u as=0p ps=0u w=420000u l=150000u
X136 a_3822_n1053.t1 a_3727_n1068.t3 VSS.t2311 VSS.t29 sky130_fd_pr__nfet_01v8 ad=0p pd=0u as=0p ps=0u w=640000u l=150000u
X137 VSS.t2441 a_4972_4445.t3 a_4877_4430.t1 VSS.t54 sky130_fd_pr__nfet_01v8 ad=0p pd=0u as=0p ps=0u w=640000u l=150000u
X138 a_5917_2180.t0 RWLB[6].t1 a_5465_n953.t24 VSS.t106 sky130_fd_pr__nfet_01v8 ad=0p pd=0u as=0p ps=0u w=420000u l=150000u
X139 VDD.t2244 a_372_693.t3 a_277_678.t1 VDD.t2243 sky130_fd_pr__pfet_01v8 ad=0p pd=0u as=0p ps=0u w=420000u l=150000u
X140 VSS.t2483 a_8422_1216.t3 a_8792_1216.t0 VSS.t233 sky130_fd_pr__nfet_01v8 ad=0p pd=0u as=0p ps=0u w=420000u l=150000u
X141 VDD.t2164 a_7847_3907.t4 a_7752_3892.t1 VDD.t2163 sky130_fd_pr__pfet_01v8 ad=0p pd=0u as=0p ps=0u w=420000u l=150000u
X142 VDD.t2249 a_6122_452.t3 a_6027_437.t1 VDD.t2248 sky130_fd_pr__pfet_01v8 ad=0p pd=0u as=0p ps=0u w=420000u l=150000u
X143 VSS.t2314 a_7843_n2422.t4 a_11514_n5092.t1 VSS.t2312 sky130_fd_pr__nfet_01v8 ad=0p pd=0u as=0p ps=0u w=2e+06u l=500000u
X144 VDD.t2245 a_9405_n7216.t3 ADC11_OUT[2].t2 VDD.t1655 sky130_fd_pr__pfet_01v8 ad=0p pd=0u as=0p ps=0u w=4e+06u l=150000u
X145 VDD.t2134 a_372_3907.t3 a_277_3892.t2 VDD.t2133 sky130_fd_pr__pfet_01v8 ad=0p pd=0u as=0p ps=0u w=420000u l=150000u
X146 a_2002_3169.t0 WWL[2].t0 a_2270_4887.t2 VSS.t73 sky130_fd_pr__nfet_01v8 ad=0p pd=0u as=0p ps=0u w=420000u l=150000u
X147 a_6708_n953.t21 WWL[13].t0 a_6697_452.t1 VSS.t7 sky130_fd_pr__nfet_01v8 ad=0p pd=0u as=0p ps=0u w=420000u l=150000u
X148 a_372_n512.t2 a_277_n527.t3 VDD.t2000 VDD.t1999 sky130_fd_pr__pfet_01v8 ad=0p pd=0u as=0p ps=0u w=420000u l=150000u
X149 a_3740_n953.t45 RWL[4].t0 a_3740_2662.t1 VSS.t37 sky130_fd_pr__nfet_01v8 ad=0p pd=0u as=0p ps=0u w=420000u l=150000u
X150 a_6708_n953.t7 WWLD[4].t1 a_6697_n271.t2 VSS.t7 sky130_fd_pr__nfet_01v8 ad=0p pd=0u as=0p ps=0u w=420000u l=150000u
X151 VDD.t2156 a_8997_n1053.t4 a_8902_n1068.t1 VDD.t2155 sky130_fd_pr__pfet_01v8 ad=0p pd=0u as=0p ps=0u w=420000u l=150000u
X152 a_3165_n953.t13 VSS.t755 a_3165_4148.t0 VSS.t43 sky130_fd_pr__nfet_01v8 ad=0p pd=0u as=0p ps=0u w=420000u l=150000u
X153 a_6122_4148.t0 a_6027_4133.t3 VSS.t2480 VSS.t24 sky130_fd_pr__nfet_01v8 ad=0p pd=0u as=0p ps=0u w=640000u l=150000u
X154 a_6040_n953.t26 RWL[2].t1 a_6040_3184.t1 VSS.t4 sky130_fd_pr__nfet_01v8 ad=0p pd=0u as=0p ps=0u w=420000u l=150000u
X155 a_7272_2180.t0 a_7177_2165.t3 VSS.t2472 VSS.t8 sky130_fd_pr__nfet_01v8 ad=0p pd=0u as=0p ps=0u w=640000u l=150000u
X156 a_2097_1698.t1 a_2002_1683.t3 VDD.t2234 VDD.t2233 sky130_fd_pr__pfet_01v8 ad=0p pd=0u as=0p ps=0u w=420000u l=150000u
X157 a_1892_n512.t0 VSS.t754 a_1440_n953.t17 VSS.t255 sky130_fd_pr__nfet_01v8 ad=0p pd=0u as=0p ps=0u w=420000u l=150000u
X158 VSS.t2257 a_8997_n30.t3 a_8902_n45.t0 VSS.t10 sky130_fd_pr__nfet_01v8 ad=0p pd=0u as=0p ps=0u w=640000u l=150000u
X159 a_7283_n953.t5 WWLD[3].t3 a_7272_3907.t0 VSS.t8 sky130_fd_pr__nfet_01v8 ad=0p pd=0u as=0p ps=0u w=420000u l=150000u
X160 a_7858_n953.t15 WWL[9].t1 a_7847_1457.t1 VSS.t11 sky130_fd_pr__nfet_01v8 ad=0p pd=0u as=0p ps=0u w=420000u l=150000u
X161 VSS.t1499 a_5632_n6430# a_13637_n6503.t1 VSS.t376 sky130_fd_pr__nfet_01v8 ad=0p pd=0u as=0p ps=0u w=550000u l=150000u
X162 a_6708_n953.t0 WWL[1].t3 a_6697_3425.t2 VSS.t7 sky130_fd_pr__nfet_01v8 ad=0p pd=0u as=0p ps=0u w=420000u l=150000u
X163 a_3042_2421.t0 RWLB[5].t0 a_2590_n953.t47 VSS.t238 sky130_fd_pr__nfet_01v8 ad=0p pd=0u as=0p ps=0u w=420000u l=150000u
X164 a_6122_975.t2 a_6027_960.t3 VDD.t2004 VDD.t2003 sky130_fd_pr__pfet_01v8 ad=0p pd=0u as=0p ps=0u w=420000u l=150000u
X165 a_852_678.t0 WWL[12].t1 a_1120_4887.t7 VSS.t16 sky130_fd_pr__nfet_01v8 ad=0p pd=0u as=0p ps=0u w=420000u l=150000u
X166 a_6615_n953.t31 RWL[12].t0 a_6615_693.t1 VSS.t52 sky130_fd_pr__nfet_01v8 ad=0p pd=0u as=0p ps=0u w=420000u l=150000u
X167 a_13864_n5850.t0 PRE_CLSA.t3 VDD.t93 VDD.t92 sky130_fd_pr__pfet_01v8 ad=0p pd=0u as=0p ps=0u w=4e+06u l=150000u
X168 VDD.t2275 a_6697_n512.t3 a_6602_n527.t2 VDD.t2274 sky130_fd_pr__pfet_01v8 ad=0p pd=0u as=0p ps=0u w=420000u l=150000u
X169 VSS.t2525 a_2097_3184.t3 a_2467_3184.t0 VSS.t259 sky130_fd_pr__nfet_01v8 ad=0p pd=0u as=0p ps=0u w=420000u l=150000u
X170 a_3042_n271.t0 VSS.t753 a_2590_n953.t3 VSS.t238 sky130_fd_pr__nfet_01v8 ad=0p pd=0u as=0p ps=0u w=420000u l=150000u
X171 a_3468_n2086.t1 a_3227_n2234.t2 VSS.t2505 VSS.t2504 sky130_fd_pr__nfet_01v8 ad=0p pd=0u as=0p ps=0u w=1e+06u l=150000u
X172 VSS.t2487 a_5547_693.t3 a_5452_678.t0 VSS.t17 sky130_fd_pr__nfet_01v8 ad=0p pd=0u as=0p ps=0u w=640000u l=150000u
X173 a_8902_4671.t0 WWLD[0].t0 a_9170_4887.t20 VSS.t10 sky130_fd_pr__nfet_01v8 ad=0p pd=0u as=0p ps=0u w=420000u l=150000u
X174 a_3165_3907.t1 a_3152_3892.t3 VSS.t2501 VSS.t43 sky130_fd_pr__nfet_01v8 ad=0p pd=0u as=0p ps=0u w=420000u l=150000u
X175 a_4315_n953.t48 RWL[5].t0 a_4315_2421.t1 VSS.t5 sky130_fd_pr__nfet_01v8 ad=0p pd=0u as=0p ps=0u w=420000u l=150000u
X176 a_11549_n6503.t2 a_11776_n7216.t3 ADC13_OUT[2].t0 VSS.t155 sky130_fd_pr__nfet_01v8 ad=0p pd=0u as=0p ps=0u w=8e+06u l=150000u
X177 a_4448_n8026.t1 VCLP.t2 a_4413_n7825.t0 VSS.t164 sky130_fd_pr__nfet_01v8 ad=0p pd=0u as=0p ps=0u w=8e+06u l=150000u
X178 a_4397_693.t1 a_4302_678.t3 VSS.t2503 VSS.t25 sky130_fd_pr__nfet_01v8 ad=0p pd=0u as=0p ps=0u w=640000u l=150000u
X179 a_8340_n953.t48 RWL[14].t0 a_8340_211.t0 VSS.t51 sky130_fd_pr__nfet_01v8 ad=0p pd=0u as=0p ps=0u w=420000u l=150000u
X180 a_5465_2943.t0 a_5452_2928.t3 VSS.t2292 VSS.t33 sky130_fd_pr__nfet_01v8 ad=0p pd=0u as=0p ps=0u w=420000u l=150000u
X181 a_7847_975.t2 a_7752_960.t3 VDD.t2255 VDD.t2254 sky130_fd_pr__pfet_01v8 ad=0p pd=0u as=0p ps=0u w=420000u l=150000u
X182 a_2577_678.t2 WWL[12].t2 a_2845_4887.t14 VSS.t28 sky130_fd_pr__nfet_01v8 ad=0p pd=0u as=0p ps=0u w=420000u l=150000u
X183 a_n3357_n7203.t0 VCLP.t3 a_n3495_n7203.t2 VSS.t165 sky130_fd_pr__nfet_01v8 ad=0p pd=0u as=0p ps=0u w=8e+06u l=150000u
X184 VDD.t1970 a_7847_n271.t4 a_7752_n286.t2 VDD.t1969 sky130_fd_pr__pfet_01v8 ad=0p pd=0u as=0p ps=0u w=420000u l=150000u
X185 a_10797_n4470.t0 VCLP.t4 a_10659_n4470.t1 VSS.t166 sky130_fd_pr__nfet_01v8 ad=0p pd=0u as=0p ps=0u w=8e+06u l=150000u
X186 VDD.t2257 a_4972_4686.t3 a_4877_4671.t1 VDD.t2256 sky130_fd_pr__pfet_01v8 ad=0p pd=0u as=0p ps=0u w=420000u l=150000u
X187 a_3822_3425.t2 a_3727_3410.t3 VDD.t2265 VDD.t2264 sky130_fd_pr__pfet_01v8 ad=0p pd=0u as=0p ps=0u w=420000u l=150000u
X188 VSS.t153 a_7272_211.t3 a_7177_196.t1 VSS.t71 sky130_fd_pr__nfet_01v8 ad=0p pd=0u as=0p ps=0u w=640000u l=150000u
X189 SA_OUT[2].t1 a_1460_n1371.t3 a_1703_n1770.t0 VSS.t154 sky130_fd_pr__nfet_01v8 ad=0p pd=0u as=0p ps=0u w=3e+06u l=150000u
X190 a_6492_2180.t0 RWLB[6].t2 a_6040_n953.t23 VSS.t260 sky130_fd_pr__nfet_01v8 ad=0p pd=0u as=0p ps=0u w=420000u l=150000u
X191 VDD.t2010 a_372_n271.t3 a_277_n286.t1 VDD.t2009 sky130_fd_pr__pfet_01v8 ad=0p pd=0u as=0p ps=0u w=420000u l=150000u
X192 a_11776_n4483.t1 ADC13_OUT[0].t3 VDD.t2106 VDD.t2105 sky130_fd_pr__pfet_01v8 ad=0p pd=0u as=0p ps=0u w=4e+06u l=150000u
X193 a_927_n2234.t1 Din[1].t0 VDD.t2287 VDD.t2286 sky130_fd_pr__pfet_01v8 ad=0p pd=0u as=0p ps=0u w=840000u l=150000u
X194 a_5342_4148.t0 VSS.t752 a_4890_n953.t16 VSS.t0 sky130_fd_pr__nfet_01v8 ad=0p pd=0u as=0p ps=0u w=420000u l=150000u
X195 a_n1233_n7216.t2 ADC2_OUT[2].t3 a_n1163_n7203.t2 VSS.t1879 sky130_fd_pr__nfet_01v8 ad=0p pd=0u as=0p ps=0u w=8e+06u l=150000u
X196 VSS.t2289 a_8997_4686.t3 a_9367_4686.t1 VSS.t256 sky130_fd_pr__nfet_01v8 ad=0p pd=0u as=0p ps=0u w=420000u l=150000u
X197 a_5452_3169.t2 WWL[2].t1 a_5720_4887.t2 VSS.t17 sky130_fd_pr__nfet_01v8 ad=0p pd=0u as=0p ps=0u w=420000u l=150000u
X198 VDD.t2128 a_8997_1457.t4 a_8902_1442.t1 VDD.t2127 sky130_fd_pr__pfet_01v8 ad=0p pd=0u as=0p ps=0u w=420000u l=150000u
X199 VDD.t2126 a_7847_3425.t4 a_7752_3410.t1 VDD.t2125 sky130_fd_pr__pfet_01v8 ad=0p pd=0u as=0p ps=0u w=420000u l=150000u
X200 a_742_3184.t1 RWLB[2].t0 a_290_n953.t45 VSS.t257 sky130_fd_pr__nfet_01v8 ad=0p pd=0u as=0p ps=0u w=420000u l=150000u
X201 VSS.t2279 a_947_2421.t3 a_852_2406.t1 VSS.t16 sky130_fd_pr__nfet_01v8 ad=0p pd=0u as=0p ps=0u w=640000u l=150000u
X202 a_7765_n953.t37 RWL[6].t0 a_7765_2180.t0 VSS.t35 sky130_fd_pr__nfet_01v8 ad=0p pd=0u as=0p ps=0u w=420000u l=150000u
X203 a_1743_n2086.t0 a_1502_n2234.t2 VSS.t802 VSS.t801 sky130_fd_pr__nfet_01v8 ad=0p pd=0u as=0p ps=0u w=1e+06u l=150000u
X204 a_6615_n953.t16 VSS.t751 a_6615_4148.t0 VSS.t52 sky130_fd_pr__nfet_01v8 ad=0p pd=0u as=0p ps=0u w=420000u l=150000u
X205 VSS.t901 a_1522_2943.t3 a_1892_2943.t1 VSS.t255 sky130_fd_pr__nfet_01v8 ad=0p pd=0u as=0p ps=0u w=420000u l=150000u
X206 a_9613_n4470.t1 Iref0.t0 a_9672_n4114.t1 VSS.t2232 sky130_fd_pr__nfet_01v8 ad=0p pd=0u as=0p ps=0u w=2e+06u l=500000u
X207 VDD.t2098 a_372_3425.t3 a_277_3410.t1 VDD.t2097 sky130_fd_pr__pfet_01v8 ad=0p pd=0u as=0p ps=0u w=420000u l=150000u
X208 a_2590_3666.t0 a_2577_3651.t3 VSS.t860 VSS.t31 sky130_fd_pr__nfet_01v8 ad=0p pd=0u as=0p ps=0u w=420000u l=150000u
X209 a_7283_n953.t8 WWLD[4].t2 a_7272_n271.t2 VSS.t8 sky130_fd_pr__nfet_01v8 ad=0p pd=0u as=0p ps=0u w=420000u l=150000u
X210 VDD.t2096 a_n1233_n4483.t3 ADC2_OUT[0].t1 VDD.t2095 sky130_fd_pr__pfet_01v8 ad=0p pd=0u as=0p ps=0u w=4e+06u l=150000u
X211 a_8020_4887.t20 PRE_SRAM.t0 VDD.t2012 VDD.t2011 sky130_fd_pr__pfet_01v8 ad=0p pd=0u as=0p ps=0u w=420000u l=150000u
X212 a_4972_3666.t1 a_4877_3651.t3 VDD.t408 VDD.t407 sky130_fd_pr__pfet_01v8 ad=0p pd=0u as=0p ps=0u w=420000u l=150000u
X213 a_2097_1216.t2 a_2002_1201.t3 VDD.t468 VDD.t467 sky130_fd_pr__pfet_01v8 ad=0p pd=0u as=0p ps=0u w=420000u l=150000u
X214 VDD.t548 a_7847_452.t3 a_7752_437.t1 VDD.t547 sky130_fd_pr__pfet_01v8 ad=0p pd=0u as=0p ps=0u w=420000u l=150000u
X215 a_8217_n812.t0 VSS.t750 a_7765_n953.t2 VSS.t254 sky130_fd_pr__nfet_01v8 ad=0p pd=0u as=0p ps=0u w=420000u l=150000u
X216 a_1892_975.t1 RWLB[11].t1 a_1440_n953.t44 VSS.t255 sky130_fd_pr__nfet_01v8 ad=0p pd=0u as=0p ps=0u w=420000u l=150000u
X217 a_8433_n953.t2 WWL[11].t1 a_8422_975.t2 VSS.t26 sky130_fd_pr__nfet_01v8 ad=0p pd=0u as=0p ps=0u w=420000u l=150000u
X218 VSS.t474 a_5547_3184.t3 a_5917_3184.t1 VSS.t106 sky130_fd_pr__nfet_01v8 ad=0p pd=0u as=0p ps=0u w=420000u l=150000u
X219 a_545_4887.t22 PRE_SRAM.t1 VDD.t2014 VDD.t2013 sky130_fd_pr__pfet_01v8 ad=0p pd=0u as=0p ps=0u w=420000u l=150000u
X220 VDD.t2207 a_4397_4445.t4 a_4302_4430.t1 VDD.t2206 sky130_fd_pr__pfet_01v8 ad=0p pd=0u as=0p ps=0u w=420000u l=150000u
X221 a_7283_n953.t0 WWL[1].t4 a_7272_3425.t0 VSS.t8 sky130_fd_pr__nfet_01v8 ad=0p pd=0u as=0p ps=0u w=420000u l=150000u
X222 a_6615_3907.t1 a_6602_3892.t3 VSS.t856 VSS.t52 sky130_fd_pr__nfet_01v8 ad=0p pd=0u as=0p ps=0u w=420000u l=150000u
X223 a_958_n953.t26 WWL[11].t2 a_947_975.t0 VSS.t27 sky130_fd_pr__nfet_01v8 ad=0p pd=0u as=0p ps=0u w=420000u l=150000u
X224 VDD.t95 PRE_CLSA.t4 ADC11_OUT[2].t0 VDD.t94 sky130_fd_pr__pfet_01v8 ad=0p pd=0u as=0p ps=0u w=4e+06u l=150000u
X225 VSS.t858 a_3247_4148.t3 a_3152_4133.t0 VSS.t69 sky130_fd_pr__nfet_01v8 ad=0p pd=0u as=0p ps=0u w=640000u l=150000u
X226 VSS.t855 a_4397_2180.t3 a_4302_2165.t0 VSS.t19 sky130_fd_pr__nfet_01v8 ad=0p pd=0u as=0p ps=0u w=640000u l=150000u
X227 VDD.t97 PRE_CLSA.t5 ADC8_OUT[2].t0 VDD.t96 sky130_fd_pr__pfet_01v8 ad=0p pd=0u as=0p ps=0u w=4e+06u l=150000u
X228 VDD.t2016 PRE_SRAM.t2 a_2108_n953.t3 VDD.t2015 sky130_fd_pr__pfet_01v8 ad=0p pd=0u as=0p ps=0u w=420000u l=150000u
X229 VSS.t1042 a_8422_4445.t3 a_8792_4445.t0 VSS.t233 sky130_fd_pr__nfet_01v8 ad=0p pd=0u as=0p ps=0u w=420000u l=150000u
X230 a_5917_693.t1 RWLB[12].t0 a_5465_n953.t20 VSS.t106 sky130_fd_pr__nfet_01v8 ad=0p pd=0u as=0p ps=0u w=420000u l=150000u
X231 a_8915_2943.t1 a_8902_2928.t3 VSS.t1548 VSS.t34 sky130_fd_pr__nfet_01v8 ad=0p pd=0u as=0p ps=0u w=420000u l=150000u
X232 a_3740_1939.t0 a_3727_1924.t3 VSS.t1550 VSS.t37 sky130_fd_pr__nfet_01v8 ad=0p pd=0u as=0p ps=0u w=420000u l=150000u
X233 a_6122_1939.t2 a_6027_1924.t3 VDD.t1283 VDD.t1282 sky130_fd_pr__pfet_01v8 ad=0p pd=0u as=0p ps=0u w=420000u l=150000u